11
      0.00000000
    H    0.28937800    0.84725800    1.76942500   -0.01714200   -0.01166900   -0.00776300    0.00062900    0.00008400   -0.00008200
    H   -0.96542600    0.78178200    2.77558000   -0.02534200    0.00593900    0.03403700   -0.00123500   -0.00028900   -0.00208200
    H    1.44345800    5.39418600    0.45191900    0.00314900   -0.01414200   -0.00759200   -0.00223800   -0.00288600    0.00141800
    H    0.26847300    4.85168600    1.40327400    0.00732600   -0.01888700   -0.00943400   -0.00134400    0.00230400    0.00259600
    H    2.97677200    2.45546000    0.50735100    0.00485900   -0.00500500    0.00293400    0.00196600    0.00053500   -0.00122100
    H    1.72365900    3.25038300    1.13284300   -0.03300100    0.02492200    0.00600700    0.00044600   -0.00238700    0.00075200
    O   -0.58646100    0.52170000    1.88812100    0.04023400    0.00452100   -0.02551500   -0.00009500   -0.00010500    0.00007200
    O    0.91807000    4.66532600    0.75009700   -0.00253100    0.02532300    0.01700200    0.00017500    0.00005200   -0.00025400
    O    2.39366100    2.50744600    1.26206300    0.02255900   -0.01073100   -0.00949000   -0.00002800    0.00008400    0.00003400
    H   -1.75421800   -3.26583600   -1.10297900    0.02551200   -0.04412600   -0.05835700    0.00003600   -0.00191800   -0.00086900
    Cl   -1.36095000   -3.93462800   -1.99180100   -0.02562200    0.04385400    0.05817200    0.00002600    0.00011700    0.00005300
11
      0.00000000
    H   -0.04876100   -0.53487100    4.20608800   -0.01907700   -0.00521400   -0.01702700    0.00164100    0.00167800    0.00077300
    H   -1.31582500    0.13996100    3.66869400   -0.02228200    0.03127800    0.00177100    0.00048800   -0.00025800    0.00079100
    H    2.93487800   -2.40011100   -3.05009700    0.03733400   -0.04219600    0.02639800   -0.00150600    0.00317100   -0.00136200
    H    2.29513300   -1.20620500   -2.56137600    0.00987100   -0.06562700   -0.10181700    0.00036100   -0.00050700   -0.00383600
    H   -2.45026600   -1.74261400    0.39710100   -0.00937900   -0.01778200    0.00876800   -0.00011500    0.00129200    0.00121700
    H   -1.96883500   -0.92896200   -0.85102400    0.00255000    0.00322400   -0.01411500   -0.00027500   -0.00003300    0.00032200
    O   -0.74875000   -0.68195200    3.60483000    0.04157000   -0.02592100    0.01541600   -0.00029600    0.00013500   -0.00011200
    O    2.30992200   -1.61567100   -3.33400000   -0.04680000    0.10756700    0.07507400    0.00008400    0.00001900    0.00022500
    O   -2.05397500   -0.89073500    0.11681400    0.00579300    0.01223800    0.00514900    0.00001200   -0.00012200    0.00000100
    H   -0.66751600    1.25506300    0.41763000    0.03374800    0.01820100   -0.02373500    0.00011700   -0.00062600   -0.00108000
    Cl    0.26072000    1.67039300   -0.25203800   -0.03332700   -0.01576700    0.02411800    0.00007000   -0.00015100    0.00003900
