11
      0.00000000
    H   -2.93659200  -10.91375400   13.15934900   -0.04530800   -0.06241100   -0.00468700   -0.00013600   -0.00065100    0.00005500
    H   -1.79122800   -9.63624000   13.52679500    0.01606300    0.02535200   -0.00254200    0.00238700    0.00213200    0.00141800
    H   -4.88141600  -10.07176300   13.60903800    0.02213500    0.00015100   -0.01351100   -0.00025300    0.00038900    0.00068300
    H   -5.81105700  -10.74918200   14.78207100    0.07435900   -0.00653900   -0.01783800   -0.00157700   -0.00070000    0.00052400
    H    4.99833400    7.04931700   -8.33523600   -0.03295500   -0.03868600   -0.09125300   -0.00135600   -0.00044800   -0.00267100
    H    5.49747400    6.28849800   -9.50825500    0.00976000   -0.00499200   -0.00469300    0.00017300   -0.00106600   -0.00253900
    O   -2.48020600   -9.99436400   12.94265500    0.03044200    0.03793600    0.00689600    0.00003600    0.00021600   -0.00010000
    O   -5.02354200  -10.64730100   14.36988400   -0.09769100    0.00551100    0.03168200   -0.00012100   -0.00034200    0.00002800
    O    4.73001900    6.72126200   -9.10729800    0.02560300    0.04322500    0.09525700    0.00036500    0.00005700    0.00005800
    H    2.63457800    6.79992300   -9.19395900    0.01452100   -0.00190700    0.00028600    0.00075800    0.00029000    0.00043900
    Cl    1.33584800    6.97708800   -9.14055500   -0.01692800    0.00235900    0.00040300   -0.00012800    0.00003300    0.00006600
11
      0.00000000
    H   -1.69644700   15.04971700   -3.42760300    0.03406400   -0.04246200    0.00230300   -0.00125600    0.00208300    0.00087700
    H   -2.95057600   15.85589900   -3.97699600    0.02553700    0.00891100    0.02603900   -0.00071000    0.00030500    0.00034200
    H    3.50261900  -12.42282800    3.19781300    0.08019800    0.04023800    0.00099300    0.00319200    0.00048200   -0.00114500
    H    4.63633800  -12.07649700    2.50179800   -0.01644000   -0.00744000    0.00116900   -0.00176000   -0.00106400   -0.00073300
    H   -5.02733500   16.76766800   -5.92991100    0.04272800   -0.01399300   -0.00511700   -0.00094000    0.00129000   -0.00070600
    H   -3.72846900   16.64038900   -6.30376900   -0.05290400   -0.01592800    0.03261100   -0.00277400    0.00006700    0.00178100
    O   -2.24748800   15.90471700   -3.37341900   -0.05801700    0.03308900   -0.02704900    0.00026400   -0.00024000   -0.00017300
    O    4.26945500  -12.00002400    3.38150200   -0.06201100   -0.03399400   -0.00189600   -0.00009400   -0.00006700    0.00041500
    O   -4.30735200   16.21424900   -5.74141400    0.00859200    0.03038200   -0.02878700    0.00003600    0.00016100   -0.00001000
    H    2.44359400  -10.09018400    3.29547000    0.04093900    0.00008700    0.01155000   -0.00077600   -0.00113900   -0.00165600
    Cl    1.12719300  -10.06103800    2.92473800   -0.04268600    0.00110900   -0.01181600    0.00005100    0.00000900   -0.00007100
11
      0.00000000
    H    9.34354300   -5.81140100   15.97720500    0.00581700   -0.01422400    0.00684000    0.00243000   -0.00177400    0.00063400
    H    8.41343000   -4.99299200   15.11262800    0.06331600    0.00782000    0.04959000   -0.00001500    0.00034900   -0.00058500
    H    6.32070700   -3.02695400   14.99150500   -0.03458400    0.02967300    0.03147100   -0.00299000    0.00155000    0.00346700
    H    7.60588400   -3.03114900   14.13509300   -0.03549300   -0.03302200    0.01250700    0.00023300    0.00012900    0.00058800
    H   -4.80596900    4.95067100   -8.73344700   -0.00877700   -0.00708900    0.02455900   -0.00060400   -0.00080800    0.00104600
    H   -5.86069600    3.88473600   -8.35533500   -0.00074700   -0.00266400    0.00684400    0.00110700    0.00123700    0.00150400
    O    9.08751100   -4.91617200   15.69709500   -0.06947900    0.00643700   -0.05855200   -0.00006500   -0.00004500   -0.00000100
    O    6.93170600   -3.59449700   14.39761700    0.07042300    0.00331600   -0.04185600    0.00022100   -0.00002000    0.00004800
    O   -5.26964100    4.55882600   -8.02414600    0.01017400    0.00982100   -0.03071600    0.00000500   -0.00008600   -0.00014900
    H   -4.85319400    2.09679800   -9.99326900   -0.03052700   -0.00600300   -0.05924700    0.00101200    0.00000100    0.00100200
    Cl   -5.38241900    1.97803200  -11.05397800    0.02987600    0.00593600    0.05856000   -0.00010700    0.00004900   -0.00017400
