11
      0.00000000
    H   -3.33882300   -7.19941900   10.94805800    0.01333600    0.02325300    0.02976600   -0.00146000   -0.00165300   -0.00152300
    H   -3.46600000   -7.05733300   12.47432700   -0.02721800   -0.02492300    0.05126600   -0.00128600   -0.00096100    0.00265300
    H   -4.28807200    1.79742200    2.64209100    0.01538000    0.03632600   -0.05356400    0.00008600   -0.00205400   -0.00060600
    H   -3.99624700    3.06236300    2.08734600   -0.00729400   -0.07747700   -0.01394700   -0.00004700    0.00378400   -0.00147200
    H   10.33822000    3.55991800  -13.71083600   -0.00539200    0.03233200    0.00213300    0.00019500   -0.00127800   -0.00091100
    H    9.72109600    2.69554300  -14.71688900    0.01361300    0.00757600    0.01904600    0.00000700   -0.00020700   -0.00068400
    O   -3.02262200   -6.65410200   11.62487000    0.01388400    0.00166800   -0.08102900    0.00007100    0.00009200    0.00017400
    O   -4.07062600    2.19739700    1.85912800   -0.00799700    0.03951200    0.06864900    0.00014200   -0.00004200    0.00023100
    O   10.31917800    2.60489700  -13.99612400   -0.00822100   -0.03990800   -0.02117800    0.00013200    0.00019400   -0.00009900
    H   -2.53672000    1.61650800    0.48058000    0.01445000   -0.00772300   -0.00654000   -0.00074100   -0.00020700   -0.00007000
    Cl   -1.54510800    0.89080200    0.22521400   -0.01453900    0.00936500    0.00539900   -0.00006500   -0.00003700   -0.00006500
11
      0.00000000
    H   -5.43597300  -15.03524400   -1.25313400   -0.00075900    0.01744700    0.00494000   -0.00004100   -0.00068200    0.00143800
    H   -4.94591800  -16.36584000   -2.03423000    0.01020700   -0.00444500   -0.01062700   -0.00169800   -0.00035800    0.00107200
    H   10.96906100    9.99876800   -2.58966700    0.00461700   -0.01648800   -0.00575300    0.00052400    0.00085600   -0.00311500
    H   10.40368700   11.43044700   -1.91922000   -0.00437200    0.08041700    0.00916000    0.00027400    0.00073000   -0.00134800
    H   -3.57547700    3.58077600    0.34770600    0.01582700   -0.02875600    0.01090700    0.00048400    0.00281200   -0.00126800
    H   -3.10028400    2.35047200    0.55860300    0.01006500    0.02092000    0.02065100   -0.00075600    0.00005700    0.00147600
    O   -4.84033200  -15.42269000   -1.90435800   -0.00944700   -0.01300200    0.00568700    0.00004600   -0.00017800   -0.00017800
    O   10.35716500   10.36428900   -1.93196400   -0.00024500   -0.06392900   -0.00340700    0.00007800    0.00008500    0.00023700
    O   -3.71063400    2.75234000   -0.10068200   -0.02628700    0.00787500   -0.03167900    0.00014600    0.00003000   -0.00000400
    H   -0.14483400    1.98226900    2.27046200   -0.02139900   -0.02368500   -0.00896300    0.00056900    0.00167900    0.00114700
    Cl   -0.94440600    1.11378000    1.92998600    0.02179200    0.02364600    0.00908400   -0.00010400   -0.00011800   -0.00000800
11
      0.00000000
    H   -8.27499500    0.73431600    2.56142500   -0.15963400    0.08324300    0.03711000   -0.00222300   -0.00119400   -0.00025300
    H   -9.14267400    1.04492800    3.71457600   -0.00602300   -0.00079700    0.02780800   -0.00011700    0.00005300    0.00052000
    H   -0.12146600   17.28274000  -13.08676700    0.02046100   -0.01182200   -0.00146900   -0.00083700    0.00173200    0.00129200
    H    0.09984400   17.47461500  -11.69988200    0.01298100   -0.00937300   -0.00914900   -0.00179200    0.00043000    0.00113700
    H    2.18727400   -8.92284400    4.69255300    0.00888100   -0.00356500   -0.03159400   -0.00155800   -0.00084200    0.00071400
    H    1.23585900   -9.07171000    3.43140200   -0.04350100   -0.00327200   -0.02394900   -0.00203300   -0.00002800    0.00111100
    O   -9.00317900    1.11220000    2.74306600    0.16565800   -0.08244600   -0.06491800   -0.00009500    0.00017000   -0.00002000
    O   -0.58909700   17.71562100  -12.33942600   -0.03344200    0.02119500    0.01061700    0.00012700    0.00013300   -0.00032000
    O    2.18839800   -9.02371900    3.76966900    0.03442600    0.00669900    0.05562700    0.00018900   -0.00017100    0.00001900
    H    4.69187300   -5.43331600    2.68001200   -0.04912000    0.02752400    0.00963100   -0.00023800   -0.00045200   -0.00049700
    Cl    3.65616300   -4.86245000    2.88276000    0.04931400   -0.02738500   -0.00971500    0.00015200   -0.00005100    0.00003100
11
      0.00000000
    H   17.35642400   -2.61151100   14.57284100   -0.00775400    0.00332400   -0.00751900    0.00105300   -0.00023800    0.00107000
    H   16.48058400   -2.17702000   13.49589500    0.00670700   -0.00359200    0.00926700   -0.00250000    0.00037800   -0.00082400
    H   -8.48699000    4.52130500   10.81563300    0.03443700    0.04428200   -0.05079600    0.00077900   -0.00146600   -0.00007500
    H   -9.66098900    4.42322000   11.98942300   -0.04566500    0.03132800    0.03176600   -0.00058900   -0.00049200    0.00074700
    H   -1.01723700   -3.05158400   -9.20961200    0.03393800   -0.02122000    0.03147100    0.00049100    0.00081600   -0.00029100
    H   -1.97279100   -2.70533900  -10.61832200   -0.02744700   -0.00820200   -0.07823900   -0.00009600   -0.00055200   -0.00058600
    O   17.39825000   -2.37931900   13.64944300    0.00104700    0.00026800   -0.00174800    0.00011600   -0.00002300    0.00002800
    O   -8.93300500    3.85017900   11.51210400    0.01122700   -0.07561000    0.01903000   -0.00001900    0.00016600    0.00003200
    O   -1.74421200   -2.46466100   -9.59977300   -0.00462700    0.02788000    0.04584300    0.00011000   -0.00001600   -0.00010400
    H   -3.24693200   -0.65256300   -8.39554300   -0.00064400   -0.02121500   -0.01083200   -0.00056100   -0.00110100   -0.00042300
    Cl   -3.34591000    0.51910500   -7.78559800   -0.00122000    0.02275700    0.01175800   -0.00005400    0.00001800    0.00003100
11
      0.00000000
    H  -10.75978500   -8.37438100  -13.25194700   -0.02288400   -0.00507500   -0.03111400    0.00076300   -0.00165000   -0.00008200
    H  -10.95928500   -7.24751500  -12.22325400   -0.04921900    0.05469500    0.00590700   -0.00158700    0.00297000    0.00094800
    H    2.69599200   12.49305300    4.41306500   -0.06673400   -0.02060000   -0.05034900    0.00137500    0.00013600    0.00027600
    H    3.28224000   12.63951300    5.96665500   -0.00938600   -0.00463200    0.04876600    0.00037500    0.00040400    0.00117500
    H    0.03715100    0.78888500    3.56494200    0.00046600   -0.00491600   -0.00180800    0.00066000   -0.00199200   -0.00181600
    H   -0.24983400   -0.68917400    3.36239300   -0.01607000   -0.01641700    0.00707000   -0.00023400    0.00027000   -0.00045300
    O  -10.30292500   -8.07089600  -12.40636400    0.07210300   -0.04962000    0.02520700   -0.00017000   -0.00018100   -0.00027700
    O    3.57230500   12.76585400    4.99842500    0.07612000    0.02523100    0.00158300   -0.00011900    0.00020400   -0.00001600
    O    0.38340600    0.02248600    3.11415300    0.01355900    0.02254600   -0.00498200    0.00005400    0.00015600    0.00007600
    H    2.71679100   -1.30431400    2.63073700   -0.01055900    0.02336300    0.01147300   -0.00100400    0.00125300    0.00125500
    Cl    3.28553200   -2.39766800    2.12160600    0.01260500   -0.02457600   -0.01175300    0.00009800   -0.00012200    0.00006200
11
      0.00000000
    H   11.65044400    1.34607100    7.91147300    0.03748600   -0.02911300    0.01620800    0.00174000    0.00020100    0.00020100
    H   10.15215100    1.45830400    7.42058700   -0.00911300   -0.00163600   -0.00263900    0.00196800    0.00102900    0.00085900
    H   -2.92281300   -1.65166500    0.85281500   -0.05349000   -0.02106300   -0.02693500    0.00026700    0.00011100    0.00010800
    H   -2.00354800   -0.37895400    1.20858300    0.00446500    0.02634000   -0.00083800    0.00011100   -0.00009100    0.00040000
    H  -11.40198800    6.65465000  -13.27136300   -0.02289000   -0.03646000    0.00718800   -0.00164400    0.00073900    0.00028500
    H  -10.64525400    8.02417500  -13.68447100    0.00645100   -0.05014400    0.06254500   -0.00197300   -0.00037500    0.00195600
    O   10.93787500    1.99586200    7.58898000   -0.02837300    0.03074900   -0.01356900   -0.00018500   -0.00004200   -0.00002100
    O   -2.03333500   -1.36074400    1.30663000    0.04780400   -0.00488900    0.02769600    0.00003900    0.00009900   -0.00029400
    O  -10.72759700    7.36177200  -13.09085500    0.01643900    0.08660300   -0.06973400    0.00000700    0.00016400   -0.00035600
    H    0.51899300   -3.02868900    1.76825200    0.04778900   -0.10031100    0.03739700   -0.00022900   -0.00025300    0.00107800
    Cl    0.97231000   -4.01475700    2.13743000   -0.04656800    0.09992200   -0.03732100    0.00005700   -0.00014000    0.00016600
11
      0.00000000
    H   13.78619800   -8.23092300    6.37281100    0.01594000    0.01395000   -0.00016800    0.00199300    0.00015400   -0.00065700
    H   12.32506300   -8.13043300    5.55527900   -0.03218500    0.00409200   -0.01913700    0.00004700    0.00242700   -0.00073000
    H   -5.55152000    6.86708500   -6.92342700   -0.02863800    0.06800500    0.02825700    0.00194700   -0.00192200    0.00047300
    H   -6.40625200    7.99994900   -7.26273800   -0.00294800   -0.00234700   -0.00399500    0.00036700    0.00103800    0.00022900
    H    7.31061000   -8.91545800   15.84231800    0.04590500   -0.02991700    0.00708300    0.00068400   -0.00231400    0.00129600
    H    6.72457300   -7.48791700   15.60951100   -0.00515900   -0.01026300    0.00105400   -0.00085500   -0.00145000    0.00100700
    O   13.20540800   -7.75476300    5.78413300    0.01624500   -0.01804100    0.01930600    0.00008600   -0.00025400    0.00021500
    O   -5.83423700    7.64450800   -6.57607500    0.03138300   -0.06509900   -0.02320700   -0.00008200    0.00008400   -0.00008000
    O    6.44132500   -8.38666400   15.71322500   -0.04074600    0.04018000   -0.00813800    0.00009500    0.00013200    0.00001800
    H   -7.36400600    5.37778600   -6.94537700   -0.00850200    0.02288600    0.00918900    0.00113000   -0.00239200   -0.00174200
    Cl   -6.91584700    4.24726100   -7.47378800    0.00870500   -0.02344500   -0.01024400   -0.00019800    0.00014600   -0.00006600
11
      0.00000000
    H  -13.31887300    4.59993200   14.69991800   -0.01820800    0.07944700    0.04970000   -0.00088700    0.00242100   -0.00037300
    H  -12.53440100    5.65323700   15.51330500   -0.02338900    0.00448400   -0.00056200   -0.00344600   -0.00061700   -0.00061900
    H    5.18378400   -8.43207500   -6.27430100   -0.04843400    0.01471500   -0.03587000   -0.00034100    0.00022400   -0.00062100
    H    4.29896600   -8.53015700   -7.27436900    0.02644800    0.01740600    0.04347200    0.00001300   -0.00024000   -0.00136300
    H    2.21673600   10.60129200    3.87571300    0.04225200   -0.04774000    0.03880500    0.00031400    0.00050400   -0.00117800
    H    2.05725400   11.16576100    2.46052500   -0.01481500    0.00178900    0.03575300   -0.00012900    0.00005900    0.00213600
    O  -13.34951400    5.33857200   15.18286900    0.04159700   -0.08393100   -0.04913800    0.00014800    0.00000300    0.00022900
    O    4.45739500   -7.95826600   -6.56826800    0.02184200   -0.03360300   -0.00733800    0.00016200   -0.00020300   -0.00002600
    O    1.64059600   11.27180300    3.28205000   -0.02743700    0.04595100   -0.07455900   -0.00004500    0.00008500    0.00002900
    H    4.18141200   -5.07022700   -6.52409400   -0.02878200    0.04007600    0.02713100    0.00122900    0.00091000    0.00089600
    Cl    3.54506000   -4.24599500   -5.92017400    0.02892600   -0.03859400   -0.02739500   -0.00002800   -0.00004100   -0.00007400
11
      0.00000000
    H   11.67566800   11.52185100   -1.91510400    0.01759700   -0.01168600    0.00725700    0.00019800   -0.00124500   -0.00239300
    H   12.64590500   12.12111000   -2.66665500   -0.09992300   -0.00347500    0.02345700    0.00027800    0.00081700    0.00026600
    H   -9.30608700   -9.14241500    1.70583800    0.01906400   -0.00568300   -0.00838800   -0.00039000   -0.00056600    0.00003100
    H  -10.45347600   -8.96362600    2.81502200   -0.01755000   -0.00627100    0.05031700   -0.00033500   -0.00029800    0.00018800
    H    1.47196100   -2.69576600    0.14193200    0.04147800    0.03334100    0.01210600   -0.00048500   -0.00080900   -0.00084100
    H    0.62792800   -4.09519100    0.12779000   -0.00883300   -0.01401500   -0.00047000   -0.00089400    0.00405900   -0.00201500
    O   11.76870100   12.22541100   -2.58556700    0.08232600    0.01516000   -0.03071400    0.00007400    0.00019600    0.00009400
    O  -10.21404300   -8.79898800    1.83572000   -0.00151300    0.01195400   -0.04192900   -0.00017800   -0.00006100    0.00001500
    O    0.62317900   -3.17110300   -0.16557000   -0.03119800   -0.02127600   -0.01199500    0.00004900   -0.00013300    0.00026900
    H   -0.98249900   -1.19570000    0.15737400   -0.01203500    0.07186600    0.01536000    0.00083900   -0.00131100   -0.00173600
    Cl   -1.15514400   -0.04692100    0.40204300    0.01058500   -0.06991700   -0.01500100    0.00004800   -0.00002000    0.00001500
11
      0.00000000
    H   -7.70352300   18.30462000   -4.65998400   -0.00369800   -0.00375800   -0.00743000   -0.00039200    0.00251300   -0.00017700
    H   -8.36999000   17.91947200   -5.90598000    0.00508700    0.00370800    0.00975400   -0.00207500   -0.00049700   -0.00116900
    H    4.68632800   11.35758800    1.54857400   -0.00853500    0.01848500    0.01677000    0.00097400   -0.00075600   -0.00138600
    H    5.27339100   10.67869400    2.68322500   -0.00524000    0.02407100    0.05942000    0.00024700   -0.00134900   -0.00117200
    H   -4.28927200  -10.93335700   -0.08434600   -0.01394800   -0.00955400   -0.01766000   -0.00166200   -0.00176400   -0.00128400
    H   -4.88588400  -11.30506000   -1.29487300   -0.02813100   -0.02293700    0.00974500    0.00003800   -0.00012900    0.00167100
    O   -8.20170800   18.69135900   -5.37620300   -0.00138900    0.00005000   -0.00232400    0.00000000    0.00024600    0.00001800
    O    5.20480600   10.52340200    1.64480800    0.01377500   -0.04255700   -0.07619000   -0.00003100    0.00019100    0.00013100
    O   -4.12100600  -10.72675400   -1.00018100    0.04207600    0.03249200    0.00791700    0.00004400   -0.00001500   -0.00011000
    H    3.75677900   -9.95563100    1.29128700    0.00193200   -0.00858600   -0.01212300   -0.00112600   -0.00023000    0.00251500
    Cl    3.59052100   -9.21062600    2.34374300   -0.00192800    0.00858500    0.01212200    0.00010900   -0.00012900    0.00001100
11
      0.00000000
    H  -13.31563800   -3.59789700   -5.98118000    0.00632300   -0.00412600   -0.00130300   -0.00040100   -0.00025600   -0.00093300
    H  -13.96332500   -4.16471800   -7.14880200   -0.00660300    0.04103800    0.04964600   -0.00017300   -0.00060400   -0.00155600
    H   14.62219100    2.04137900    4.07720000   -0.01619500   -0.05633800    0.00674400    0.00131900    0.00448300   -0.00139400
    H   15.16302600    2.98526600    2.94541300    0.00942700   -0.00373300   -0.03925100    0.00096600    0.00031600    0.00132100
    H    1.20259700    2.16963900    2.44685200   -0.04972100   -0.03687700   -0.01235900   -0.00049300   -0.00119000   -0.00109900
    H   -0.32920500    2.13299000    2.76496900   -0.05386300    0.02758100    0.02924900   -0.00019100    0.00078000    0.00016900
    O  -14.13741400   -3.57264700   -6.48392100    0.00027900   -0.03691200   -0.04834300   -0.00035300   -0.00008200    0.00003600
    O   14.91439300    3.02278300    3.92120000    0.00676900    0.06007200    0.03250800    0.00021800   -0.00026000    0.00014600
    O    0.46815900    1.66515900    2.27543200    0.10621200    0.00862700   -0.01648100    0.00007000    0.00012800    0.00021600
    H   -0.42119700    0.59668900    0.81987900    0.00307200    0.03925500    0.02095800   -0.00044500   -0.00080000   -0.00055700
    Cl   -0.65126300   -0.57541100    0.12728100   -0.00570000   -0.03858600   -0.02136700    0.00001300    0.00001900   -0.00006500
