11
      0.00000000
    H    7.26474200    2.82672300  -14.13869600    0.00250700   -0.00210000    0.00237200   -0.00004200   -0.00056400    0.00043700
    H    7.29472000    3.92366800  -15.20440900    0.01366900   -0.00798900    0.00952000    0.00316500   -0.00207000    0.00038100
    H    4.83420800   -3.15322300   -5.21845100    0.04370000    0.00603100    0.00908800   -0.00222400   -0.00068200   -0.00058500
    H    3.53232500   -3.89389700   -4.90004100    0.01933700    0.04243300   -0.03743900   -0.00090900   -0.00243200    0.00102700
    H    6.71515400    4.61867800   -3.04012600   -0.01151100   -0.03414400   -0.00707900    0.00016300   -0.00003600   -0.00041800
    H    6.60695400    3.92334200   -1.90931600   -0.01246800   -0.03127800   -0.02592500    0.00080400    0.00134900   -0.00039000
    O    7.83877000    3.41020500  -14.63501600   -0.01617400    0.01009200   -0.01189500    0.00002200    0.00024300   -0.00041500
    O    3.85901800   -3.25223800   -5.45525600   -0.06305200   -0.04846200    0.02834700    0.00016600    0.00007300   -0.00008100
    O    6.88861800    4.87049200   -2.09674700    0.02399200    0.06541700    0.03301000   -0.00002500    0.00003800    0.00012400
    H   -8.19015700   -1.89577700   11.32999200    0.00381200    0.00201300    0.00080800    0.00042600   -0.00082500    0.00049400
    Cl   -9.30419200   -2.48397200   11.09374800   -0.00381200   -0.00201300   -0.00080800   -0.00011400   -0.00001100    0.00014300
11
      0.00000000
    H   -7.92963100   -1.57512600    2.14185700   -0.02174300    0.00712200    0.02526400    0.00052100    0.00055100    0.00090500
    H   -7.02797900   -0.50330200    3.12493100    0.03456800    0.03687100    0.03141900   -0.00215400   -0.00081100   -0.00076600
    H    4.50993700    0.97912600   13.65507300    0.04488200   -0.00820400   -0.02160800    0.00026700    0.00037000   -0.00170000
    H    3.47213400    1.88332000   14.49654900   -0.00898100    0.01850600    0.01239200   -0.00132900   -0.00014500    0.00013600
    H    1.30908400   -7.61550900  -14.71763000   -0.07857000    0.01807600   -0.05705200   -0.00009100    0.00113800   -0.00004500
    H    0.29896600   -8.20202800  -15.44289600   -0.00937300   -0.08232200   -0.00595900    0.00041400   -0.00028700   -0.00068400
    O   -7.85853000   -1.03443500    2.89693900   -0.01282500   -0.04399300   -0.05668300    0.00001500   -0.00002400   -0.00002900
    O    3.57227800    1.01883000   14.04348500   -0.03590100   -0.01030200    0.00921700    0.00008000    0.00002300    0.00019800
    O    0.67077800   -7.19876800  -15.18382700    0.08794300    0.06424600    0.06301100   -0.00005300   -0.00007000   -0.00001600
    H    1.77126100    3.48012900    0.30282900   -0.00028300    0.00431100   -0.03550100   -0.00128400   -0.00066400    0.00045200
    Cl    1.76165200    3.62787300   -0.91340700    0.00028300   -0.00431100    0.03550100    0.00008600    0.00002800   -0.00002100
